Circuit: * Z:\home\raiyan\Neuromorphic-Computing\Wijekoon_Ronchini_Izhikevich\spice\wijekoon_neuron.asc

Ignoring BSIM parameter XL
Ignoring BSIM parameter XW
Ignoring BSIM parameter XL
Ignoring BSIM parameter XW
WARNING: Node N002 is floating.
WARNING: Node N008 is floating.

WARNING: Less than two connections to node N008.  This node is used by M14.
Warning: Pd = 0 is less than W.
Warning: Ps = 0 is less than W.
Warning: Pd = 0 is less than W.
Warning: Ps = 0 is less than W.
Warning: Pd = 0 is less than W.
Warning: Ps = 0 is less than W.
Warning: Pd = 0 is less than W.
Warning: Ps = 0 is less than W.
Warning: Pd = 0 is less than W.
Warning: Ps = 0 is less than W.
Warning: Pd = 0 is less than W.
Warning: Ps = 0 is less than W.
Warning: Pd = 0 is less than W.
Warning: Ps = 0 is less than W.
Warning: Pd = 0 is less than W.
Warning: Ps = 0 is less than W.
Warning: Pd = 0 is less than W.
Warning: Ps = 0 is less than W.
Warning: Pd = 0 is less than W.
Warning: Ps = 0 is less than W.
Warning: Pd = 0 is less than W.
Warning: Ps = 0 is less than W.
Warning: Pd = 0 is less than W.
Warning: Ps = 0 is less than W.
Warning: Pd = 0 is less than W.
Warning: Ps = 0 is less than W.
Direct Newton iteration for .op point succeeded.

Date: Tue Oct 03 17:25:50 2023
Total elapsed time: 0.189 seconds.

tnom = 27
temp = 27
method = modified trap
totiter = 12392
traniter = 12357
tranpoints = 4272
accept = 3420
rejected = 852
matrix size = 20
fillins = 4
solver = Normal
Matrix Compiler1: 1.10 KB object code size  0.3/0.2/[0.1]
Matrix Compiler2: 1.89 KB object code size  0.2/0.3/[0.2]

