Circuit: * Z:\home\raiyan\Neuromorphic-Computing\Ronchini_Izhikevich\spice\neuron.asc

Ignoring BSIM parameter XL
Ignoring BSIM parameter XW
Ignoring BSIM parameter XL
Ignoring BSIM parameter XW
WARNING: Node N011 is floating.
WARNING: Node N005 is floating.
WARNING: Node N006 is floating.
WARNING: Node NC_01 is floating.
WARNING: Node N010 is floating.
WARNING: Node N007 is floating.
WARNING: Node N012 is floating.
WARNING: Node N003 is floating.
WARNING: Node N004 is floating.
WARNING: Node N013 is floating.
WARNING: Node N014 is floating.

WARNING: Less than two connections to node N011.  This node is used by M1.
WARNING: Less than two connections to node N005.  This node is used by M2.
WARNING: Less than two connections to node N006.  This node is used by M3.
WARNING: Less than two connections to node NC_01.  This node is used by M4.
WARNING: Less than two connections to node N010.  This node is used by M4.
WARNING: Less than two connections to node N007.  This node is used by M7.
WARNING: Less than two connections to node N012.  This node is used by M6.
WARNING: Less than two connections to node N003.  This node is used by M9.
WARNING: Less than two connections to node N004.  This node is used by M11.
WARNING: Less than two connections to node N013.  This node is used by M10.
WARNING: Less than two connections to node N014.  This node is used by M12.
Warning: Pd = 0 is less than W.
Warning: Ps = 0 is less than W.
Warning: Pd = 0 is less than W.
Warning: Ps = 0 is less than W.
Warning: Pd = 0 is less than W.
Warning: Ps = 0 is less than W.
Warning: Pd = 0 is less than W.
Warning: Ps = 0 is less than W.
Warning: Pd = 0 is less than W.
Warning: Ps = 0 is less than W.
Warning: Pd = 0 is less than W.
Warning: Ps = 0 is less than W.
Warning: Pd = 0 is less than W.
Warning: Ps = 0 is less than W.
Warning: Pd = 0 is less than W.
Warning: Ps = 0 is less than W.
Warning: Pd = 0 is less than W.
Warning: Ps = 0 is less than W.
Warning: Pd = 0 is less than W.
Warning: Ps = 0 is less than W.
Warning: Pd = 0 is less than W.
Warning: Ps = 0 is less than W.
Early termination of direct N-R iteration.
Direct Newton iteration failed to find .op point.  (Use ".option noopiter" to skip.)
Starting Gmin stepping
Gmin = 10
Gmin = 1.07374
Gmin = 0.115292
Gmin = 0.0123794
Gmin = 0.00132923
Gmin = 0.000142725
Gmin = 1.5325e-005
Gmin = 1.6455e-006
Gmin = 1.76685e-007
Gmin = 1.89714e-008
Gmin = 2.03704e-009
Gmin = 2.18725e-010
Gmin = 2.34854e-011
Gmin = 2.52173e-012
Gmin = 2.70769e-013
Gmin = 0
Gmin stepping succeeded in finding the operating point.


Date: Thu Oct 19 18:45:49 2023
Total elapsed time: 0.119 seconds.

tnom = 27
temp = 27
method = modified trap
totiter = 2539
traniter = 2094
tranpoints = 1048
accept = 1048
rejected = 0
matrix size = 22
fillins = 12
solver = Normal
Matrix Compiler1: 2.50 KB object code size  0.5/0.3/[0.1]
Matrix Compiler2: 2.44 KB object code size  0.3/0.3/[0.2]

