Circuit: * Z:\home\raiyan\Neuromorphic-Computing\Besrour_22_LIF\spice\LIF.asc

Ignoring BSIM parameter XL
Ignoring BSIM parameter XW
Ignoring BSIM parameter XL
Ignoring BSIM parameter XW
Warning: Pd = 0 is less than W.
Warning: Ps = 0 is less than W.
Warning: Pd = 0 is less than W.
Warning: Ps = 0 is less than W.
Direct Newton iteration for .op point succeeded.

Date: Tue Oct 03 17:20:20 2023
Total elapsed time: 0.095 seconds.

tnom = 27
temp = 27
method = modified trap
totiter = 6630
traniter = 6615
tranpoints = 2435
accept = 2019
rejected = 416
matrix size = 6
fillins = 0
solver = Normal
Matrix Compiler1: 334 bytes object code size  0.1/0.1/[0.1]
Matrix Compiler2: 530 bytes object code size  0.1/0.1/[0.1]

