Circuit: * Z:\home\raiyan\Neuromorphic-Computing\Besrour_22_LIF\spice\neuron.asc

Ignoring BSIM parameter XL
Ignoring BSIM parameter XW
Ignoring BSIM parameter XL
Ignoring BSIM parameter XW
Warning: Pd = 0 is less than W.
Warning: Ps = 0 is less than W.
Warning: Pd = 0 is less than W.
Warning: Ps = 0 is less than W.
Direct Newton iteration for .op point succeeded.
.step i_in=1e-009
.step i_in=6e-009
.step i_in=1.1e-008
.step i_in=1.6e-008
.step i_in=2.1e-008
.step i_in=2.6e-008
.step i_in=3.1e-008
.step i_in=3.6e-008
.step i_in=4.1e-008
.step i_in=4.6e-008
.step i_in=5.1e-008
.step i_in=5.6e-008
.step i_in=6.1e-008
.step i_in=6.6e-008
.step i_in=7.1e-008
.step i_in=7.6e-008
.step i_in=8.1e-008
.step i_in=8.6e-008
.step i_in=9.1e-008
.step i_in=9.6e-008
.step i_in=1e-007

Date: Sat Oct 28 18:39:32 2023
Total elapsed time: 3.594 seconds.

tnom = 27
temp = 27
method = modified trap
totiter = 46760
traniter = 46745
tranpoints = 13095
accept = 9670
rejected = 3425
matrix size = 6
fillins = 0
solver = Normal
Matrix Compiler1: 334 bytes object code size  0.1/0.1/[0.1]
Matrix Compiler2: 530 bytes object code size  0.1/0.1/[0.1]

